%chk=5G27_MTN_ready_set.chk
%mem=60GB
%nprocshared=12
#p gen 6d pbe1pbe

start preoptimized

0 2
 C                                                    -11.73000000   58.61100000    0.66500000
 C                                                    -10.70000000   59.44800000    1.37400000
 C                                                    -10.94600000   60.75000000    1.32700000
 C                                                    -10.09400000   61.78900000    1.99100000
 C                                                    -12.17500000   61.08900000    0.51500000
 C                                                    -11.84300000   61.67000000   -0.85600000
 C                                                    -13.17100000   61.97100000    1.26400000
 C                                                    -12.31600000   57.51900000    1.55400000
 C                                                    -11.21500000   58.02400000   -0.64700000
 N                                                    -12.76800000   59.66400000    0.40600000
 O                                                    -13.58500000   59.48500000   -0.77600000
 H                                                     -9.82500000   59.14200000    1.45000000
 H                                                     -9.75700000   61.43700000    2.79400000
 H                                                    -10.62300000   62.53900000    2.18700000
 H                                                    -11.37000000   62.47400000   -0.74800000
 H                                                    -12.63800000   61.83500000   -1.32700000
 H                                                    -11.31600000   61.05900000   -1.33600000
 H                                                    -12.76100000   62.78400000    1.49400000
 H                                                    -13.45300000   61.53100000    2.04400000
 H                                                    -13.91400000   62.14000000    0.71500000
 H                                                    -12.53400000   57.88100000    2.39200000
 H                                                    -13.09000000   57.17000000    1.15300000
 H                                                    -11.68500000   56.83300000    1.66400000
 H                                                    -10.82900000   58.70600000   -1.16500000
 H                                                    -10.57000000   57.36700000   -0.46400000
 H                                                    -11.92900000   57.63800000   -1.11900000
 H                                                     -9.27280321   62.09576891    1.37746217

@/home/malgo/Basis_sets/n07d_pbe0.gbs

