%chk=6N87_MTN_ready_set.chk
%mem=60GB
%nprocshared=12
#p gen 6d pbe1pbe

start preoptimized

0 2
 C                                                    82.56700000   11.28000000    5.87600000
 C                                                    83.58500000   11.12000000    4.88900000
 C                                                    83.53300000    9.83500000    4.36200000
 C                                                    84.45200000    9.35200000    3.25500000
 C                                                    82.51000000    9.09400000    5.03000000
 C                                                    83.03600000    7.99300000    5.94300000
 C                                                    81.62600000    8.34000000    4.05300000
 C                                                    81.70000000   12.51900000    5.77000000
 C                                                    83.09500000   11.44100000    7.29300000
 N                                                    81.70200000   10.10500000    5.72600000
 O                                                    81.22200000    9.77700000    6.64600000
 H                                                    84.40400000   11.54800000    4.99300000
 H                                                    84.53100000    8.41800000    3.30200000
 H                                                    84.08900000    9.59100000    2.42300000
 H                                                    82.31500000    7.54300000    6.34300000
 H                                                    83.54300000    7.38500000    5.43900000
 H                                                    83.57700000    8.37200000    6.61100000
 H                                                    81.01500000    7.80800000    4.52700000
 H                                                    81.15800000    8.95300000    3.51800000
 H                                                    82.15900000    7.79200000    3.50700000
 H                                                    82.20900000   13.27800000    5.98500000
 H                                                    80.97500000   12.44800000    6.36300000
 H                                                    81.37700000   12.59900000    4.89200000
 H                                                    83.56500000   10.66700000    7.54000000
 H                                                    82.37800000   11.57300000    7.88500000
 H                                                    83.67200000   12.18100000    7.33000000
 H                                                    85.42032354    9.79519193    3.35906936

@/home/malgo/Basis_sets/n07d_pbe0.gbs

